// ************************************************************************* //
FoamFile
{
    version     2.0;
    format      ascii;
    class       volScalarField;
    location    "0";
    object      flux0;
}
// * * * * * * * * * * * * * * * * * * * * * * * * * * * * * * * * * * * * * //

dimensions      [0 -2 -1 0 0 0 0];

internalField   uniform 1e10;

boundaryField
{

    movingWall
    {
        type            inletOutlet;
        phi             phif;
        inletValue      uniform 0;
        value           uniform 0;
    }
    fixedWalls
    {
        type            inletOutlet;
        phi             phif;
        inletValue      uniform 0;
        value           uniform 0;
    }
    frontAndBack
    {
        type            empty;
    }
}


// ************************************************************************* //
