// ************************************************************************* //
FoamFile
{
    version     2.0;
    format      ascii;
    class       volScalarField;
    location    "0";
    object      IV4;
}
// * * * * * * * * * * * * * * * * * * * * * * * * * * * * * * * * * * * * * //

dimensions      [0 -1 1 0 0 0 0];

internalField   uniform 1.55845e-06;

boundaryField
{
    #include "XS"
}


// ************************************************************************* //
