// ************************************************************************* //
FoamFile
{
    version     2.0;
    format      ascii;
    class       dictionary;
    location    constant;
    object      delayedNeutronConstants;
}

// * * * * * * * * * * * * * * * * * * * * * * * * * * * * * * * * * * * * * //

DNPGroups   0;

Sct         0.85;
Sc          2e8;

lambda0     0;
lambda1     0;
lambda2     0;
lambda3     0;
lambda4     0;
lambda5     0;
lambda6     0;
lambda7     0;

beta0       0;
beta1       0;
beta2       0;
beta3       0;
beta4       0;
beta5       0;
beta6       0;
beta7       0;

// ************************************************************************* //
