// ************************************************************************* //
FoamFile
{
    format      ascii;
    class       dictionary;
    location    "constant";
    object      physicalProperties;
}
// * * * * * * * * * * * * * * * * * * * * * * * * * * * * * * * * * * * * * //

thermoType
{
    type            heRhoThermo;
    mixture         pureMixture;
    transport       const;
    thermo          hConst;
    equationOfState rhoConst;
    specie          specie;
    energy          sensibleEnthalpy;
}

mixture
{
    specie
    {
        molWeight   18;
    }
    thermodynamics
    {
        Cp          3226;
        hf          0;
    }
    transport
    {
        mu          50;
        Pr          3.075e5;
    }
    equationOfState
    {
        rho         1000;
    }
}


// ************************************************************************* //
