// ************************************************************************* //
FoamFile
{
    format      ascii;
    class       dictionary;
    object      fvConstraints;
}
// * * * * * * * * * * * * * * * * * * * * * * * * * * * * * * * * * * * * * //




// ************************************************************************* //
