// ************************************************************************* //
FoamFile
{
    format      ascii;
    class       dictionary;
    object      blockMeshDict;
}
// * * * * * * * * * * * * * * * * * * * * * * * * * * * * * * * * * * * * * //

convertToMeters 1;

vertices
(
     (-1   0  -1)
     ( 1   0  -1)
     ( 1   1  -1)
     (-1   1  -1)
     (-1   0   1)
     ( 1   0   1)
     ( 1   1   1)
     (-1   1   1)
);

blocks
(
    hex (0 1 2 3 4 5 6 7) (100 1 100) simpleGrading (1 1 1)
);

boundary
(
    movingWall
    {
        type wall;
        faces
        (
            (4 5 6 7)
        );
    }
    fixedWalls
    {
        type wall;
        faces
        (
            (0 1 2 3)
            (1 2 5 6)
            (0 3 7 4)
        );
    }
    frontAndBack
    {
        type empty;
        faces
        (
            (3 2 6 7)
            (0 1 5 4)
        );
    }
);


// ************************************************************************* //
