// ************************************************************************* //
FoamFile
{
    format      ascii;
    class       dictionary;
    location    "system";
    object      controlDict;
}
// * * * * * * * * * * * * * * * * * * * * * * * * * * * * * * * * * * * * * //

// OpenFOAM controlDict

application     foamRun;

solver          fluid;

startFrom       latestTime;

startTime       0;

stopAt          endTime;

endTime         20000;

deltaT          1;

writeControl    runTime;

writeInterval   1000;

purgeWrite      0;

writeFormat     ascii;

writePrecision  10;

writeCompression off;

timeFormat      general;

timePrecision   6;

runTimeModifiable true;

adjustTimeStep  no;

maxCo           1;

maxDeltaT       1;


// MUSCLE-Foam controlDict

neutronicsSolver SN;

scatteringOrders 4;

externalCycles  1;

energyGroups    6;

decayHeat       false;

criticalityCalculationActive true;

criticalityInactive 1000;

keff            1.0;

nominalPower    1e9;


// Sampling functions

functions
{
    horizontal
    {
        type            sets;
        libs            ("libsampling.so");
        writeControl    writeTime;
        interpolationScheme cellPoint;
        setFormat csv;
        name horizontal;
        sets
        (
          horizontal
          {
            type lineCell;
            axis x;
            start (-1 0.5 0);
            end (1 0.5 0);
          }
        );
        fields
        (
          totalFlux0
          totalFlux1
          totalFlux2
          totalFlux3
          totalFlux4
          totalFlux5
        );
    }

    vertical
    {
        type            sets;
        libs            ("libsampling.so");
        writeControl    writeTime;
        interpolationScheme cellPoint;
        setFormat csv;
        name vertical;
        sets
        (
          vertical
          {
            type lineCell;
            axis z;
            start (0 0.5 -1);
            end (0 0.5 1);
          }
        );
        fields
        (
          totalFlux0
          totalFlux1
          totalFlux2
          totalFlux3
          totalFlux4
          totalFlux5
        );
    }
}


// ************************************************************************* //
