// ************************************************************************* //
FoamFile
{
    format      ascii;
    class       dictionary;
    location    "system";
    object      fvSchemes;
}
// * * * * * * * * * * * * * * * * * * * * * * * * * * * * * * * * * * * * * //

ddtSchemes
{
    default         steadyState;
}

gradSchemes
{
    default         Gauss linear;
}

divSchemes
{
    default         none;
    div(phi,U)      Gauss limitedLinearV 1;
    div(phid,p)     Gauss limitedLinear 1;
    div(phi,(p|rho)) Gauss linear;
    div(phi,K)      Gauss linear;
    div(phi,h)      Gauss limitedLinear 1;
    div(phi,e)      Gauss limitedLinear 1;
    div(phi,R)      Gauss limitedLinear 1;
    div((rho*R))    Gauss linear;
    div(R)          Gauss linear;
    div(U)          Gauss linear;
    div(((rho*nuEff)*dev2(T(grad(U))))) Gauss linear;

    "div\(tempPhi,.*\)" Gauss upwind;
    "div\(phif,.*\)"     Gauss limitedLinear 1;
}

laplacianSchemes
{
    default         Gauss linear orthogonal;
}

interpolationSchemes
{
    default         linear;
}

snGradSchemes
{
    default         orthogonal;
}

wallDist
{
    method meshWave;
}


// ************************************************************************* //
