// ************************************************************************* //
FoamFile
{
    format      ascii;
    class       volScalarField;
    object      p;
}
// * * * * * * * * * * * * * * * * * * * * * * * * * * * * * * * * * * * * * //

dimensions      [1 -1 -2 0 0 0 0];

internalField   uniform 0;

boundaryField
{
    left
    {
        type            calculated;
        value           $internalField;
    }

    right
    {
        type            calculated;
        value           $internalField;
    }

    empties
    {
        type            empty;
    }
}

// ************************************************************************* //
