// ************************************************************************* //
FoamFile
{
    format      ascii;
    class       volScalarField;
    object      T;
}
// * * * * * * * * * * * * * * * * * * * * * * * * * * * * * * * * * * * * * //

dimensions      [0 0 0 1 0 0 0];

internalField   uniform 1000;

boundaryField
{
    left
    {
        type            zeroGradient;
    }

    right
    {
        type            zeroGradient;
    }

    empties
    {
        type            empty;
    }
}

// ************************************************************************* //
